Version 4
SHEET 1 1104 860
WIRE -912 -144 -912 -176
WIRE -960 32 -1040 32
WIRE -384 32 -464 32
WIRE 272 32 208 32
WIRE 448 32 272 32
WIRE 560 32 512 32
WIRE 736 32 560 32
WIRE 864 32 816 32
WIRE 1040 32 864 32
WIRE -960 64 -960 32
WIRE -384 64 -384 32
WIRE 272 128 272 32
WIRE 560 128 560 32
WIRE 864 128 864 32
WIRE 448 144 448 32
WIRE 736 144 736 32
WIRE 1040 144 1040 32
WIRE -960 208 -1040 208
WIRE -384 208 -464 208
WIRE -960 240 -960 208
WIRE -384 240 -384 208
WIRE -960 432 -1040 432
WIRE -384 432 -464 432
WIRE -960 464 -960 432
WIRE -384 464 -384 432
WIRE 624 496 624 480
WIRE 528 544 464 544
WIRE 528 576 464 576
WIRE -960 608 -1040 608
WIRE -384 608 -464 608
WIRE 528 608 464 608
WIRE -960 640 -960 608
WIRE -384 640 -384 608
WIRE 528 640 464 640
WIRE 752 672 720 672
WIRE 528 704 464 704
WIRE 528 736 464 736
WIRE 528 768 464 768
WIRE 528 800 464 800
FLAG -960 144 0
FLAG -960 320 0
FLAG -1040 32 X1
FLAG -1040 208 X2
FLAG -912 -64 0
FLAG -912 -176 VDD
FLAG 448 208 0
FLAG 272 208 0
FLAG -960 544 0
FLAG -1040 432 X3
FLAG -960 720 0
FLAG -1040 608 X4
FLAG -384 144 0
FLAG -384 320 0
FLAG -464 32 X5
FLAG -464 208 X6
FLAG -384 544 0
FLAG -464 432 X7
FLAG -384 720 0
FLAG -464 608 X8
FLAG 208 32 Ye
FLAG 736 208 0
FLAG 560 208 0
FLAG 512 32 Yl
FLAG 1040 208 0
FLAG 864 208 0
FLAG 816 32 Yg
FLAG 624 480 VDD
FLAG 752 672 Ye
FLAG 464 544 X1
FLAG 464 576 X3
FLAG 464 608 X5
FLAG 464 640 X7
FLAG 464 704 X2
FLAG 464 736 X4
FLAG 464 768 X6
FLAG 464 800 X8
SYMBOL voltage -960 48 R0
WINDOW 123 0 0 Left 0
WINDOW 39 0 0 Left 0
SYMATTR InstName V1
SYMATTR Value PULSE(0 1 1n 10p 10p 2n 4n)
SYMBOL voltage -912 -160 R0
WINDOW 123 0 0 Left 0
WINDOW 39 0 0 Left 0
SYMATTR InstName VDD1
SYMATTR Value 1
SYMBOL voltage -960 224 R0
WINDOW 123 0 0 Left 0
WINDOW 39 0 0 Left 0
SYMATTR InstName V2
SYMATTR Value PULSE(0 1 1n 10p 10p 4n 8n)
SYMBOL res 256 112 R0
SYMATTR InstName R1
SYMATTR Value 100k
SYMBOL cap 432 144 R0
SYMATTR InstName C1
SYMATTR Value 100f
SYMBOL voltage -960 448 R0
WINDOW 123 0 0 Left 0
WINDOW 39 0 0 Left 0
SYMATTR InstName V3
SYMATTR Value PULSE(0 1 1n 10p 10p 8n 16n)
SYMBOL voltage -960 624 R0
WINDOW 123 0 0 Left 0
WINDOW 39 0 0 Left 0
SYMATTR InstName V4
SYMATTR Value PULSE(0 1 1n 10p 10p 16n 32n)
SYMBOL voltage -384 48 R0
WINDOW 123 0 0 Left 0
WINDOW 39 0 0 Left 0
SYMATTR InstName V5
SYMATTR Value PULSE(0 1 1n 10p 10p 32n 64n)
SYMBOL voltage -384 224 R0
WINDOW 123 0 0 Left 0
WINDOW 39 0 0 Left 0
SYMATTR InstName V6
SYMATTR Value PULSE(0 1 1n 10p 10p 64n 128n)
SYMBOL voltage -384 448 R0
WINDOW 123 0 0 Left 0
WINDOW 39 0 0 Left 0
SYMATTR InstName V7
SYMATTR Value PULSE(0 1 1n 10p 10p 128n 256n)
SYMBOL voltage -384 624 R0
WINDOW 123 0 0 Left 0
WINDOW 39 0 0 Left 0
SYMATTR InstName V8
SYMATTR Value PULSE(0 1 1n 10p 10p 256n 512n)
SYMBOL res 544 112 R0
SYMATTR InstName R2
SYMATTR Value 100k
SYMBOL cap 720 144 R0
SYMATTR InstName C2
SYMATTR Value 100f
SYMBOL res 848 112 R0
SYMATTR InstName R3
SYMATTR Value 100k
SYMBOL cap 1024 144 R0
SYMATTR InstName C3
SYMATTR Value 100f
SYMBOL full-comparator4 624 672 R0
SYMATTR InstName X1
TEXT 216 376 Left 2 !.include 90nm_bulk.txt
TEXT 616 376 Left 2 !.tran 0 2048n 0 32p
