Version 4
SHEET 1 1136 852
WIRE 208 80 208 16
WIRE 128 128 -64 128
WIRE 768 160 320 160
WIRE 944 160 768 160
WIRE 128 192 -64 192
WIRE 768 256 768 160
WIRE 944 272 944 160
WIRE 48 336 -32 336
WIRE 48 368 48 336
WIRE 560 368 560 336
WIRE 48 512 -32 512
WIRE 48 544 48 512
FLAG 48 448 0
FLAG 48 624 0
FLAG -32 336 X1
FLAG -32 512 X2
FLAG -64 128 X1
FLAG -64 192 X2
FLAG 560 448 0
FLAG 560 336 VDD
FLAG 208 16 VDD
FLAG 768 336 0
FLAG 944 336 0
SYMBOL voltage 48 352 R0
WINDOW 123 0 0 Left 0
WINDOW 39 0 0 Left 0
SYMATTR InstName V1
SYMATTR Value PULSE(0 1 1n 10p 10p 2n 4n)
SYMBOL voltage 560 352 R0
WINDOW 123 0 0 Left 0
WINDOW 39 0 0 Left 0
SYMATTR InstName VDD1
SYMATTR Value 1
SYMBOL voltage 48 528 R0
WINDOW 123 0 0 Left 0
WINDOW 39 0 0 Left 0
SYMATTR InstName V2
SYMATTR Value PULSE(0 1 1n 10p 10p 4n 8n)
SYMBOL res 752 240 R0
SYMATTR InstName R1
SYMATTR Value 100k
SYMBOL cap 928 272 R0
SYMATTR InstName C1
SYMATTR Value 100f
SYMBOL nand 208 160 R0
SYMATTR InstName X1
TEXT 360 -56 Left 2 !.include 90nm_bulk.txt
TEXT 760 -56 Left 2 !.tran 0 32n 0 1p
